force_use_old_data		    = .true.,
history_interval                    = 60,   60,   60,
history_begin_h                     = 00,   00,   00,
frames_per_outfile                  = 6,    1,    1,

interval_seconds                    = 21600,
input_from_file                     = .true.,.true.,.true.,             ! whether the nested run will have input files for domains other than 1
fine_input_stream                   = 0,    0,    0,                    ! 0- all fields from nest input are used
                                                                        ! 2- only nest input specified from input stream 2 (defined in the Registry) are used
cycling                             = .false.                           ! true for cycling (using wrfout file as input data)
restart                             = .false.,
restart_interval                    = 14400,

auxinput1_inname                    = "met_em.d<domain>.<date>",

auxinput4_inname                    = "wrflowinp_d<domain>",            ! SST data input
auxinput4_interval                  = 360,  360,
io_form_auxinput4                   = 2,

!auxinput5_inname                     = 'wrfchemi_<hr>z_d<domain>'
auxinput5_inname                     = 'wrfchemi_d<domain>_<date>'
frames_per_auxinput5                = 12

auxinput5_interval_m                = 60, 60,                           ! Anthropogenic emissions input
io_form_auxinput5                   = 2,

auxinput6_inname                    = "wrfbiochemi_d<domain>",          ! Biogenic emissions input
io_form_auxinput6                   = 2,

auxinput12_inname                   = "wrf_chem_input",                 ! Reading WRF-Chem output from a previous run
io_form_auxinput12                  = 2,
debug_level                         = 0,
/


&domains
time_step                           = 72,
time_step_fract_num                 = 0,
time_step_fract_den                 = 1,

max_dom                             = 1,

s_we                                = 1,
e_we                                = 441,
s_sn                                = 1,
e_sn                                = 285,

num_metgrid_levels                  = 40,                               ! 61- ERA-Interim
num_metgrid_soil_levels             = 4,

p_top_requested                     = 5000,
s_vert                              = 1,

e_vert                              = 51,
eta_levels                          = 1.0000, 0.9973, 0.9944, 0.9912, 0.9877,
                                      0.9838, 0.9794, 0.9745, 0.9690, 0.9629,
                                      0.9559, 0.9480, 0.9392, 0.9291, 0.9178,
                                      0.9050, 0.8907, 0.8747, 0.8569, 0.8372,
                                      0.8155, 0.7919, 0.7662, 0.7386, 0.7093,
                                      0.6782, 0.6458, 0.6121, 0.5776, 0.5424,
                                      0.5069, 0.4713, 0.4361, 0.4013, 0.3673,
                                      0.3342, 0.3022, 0.2714, 0.2420, 0.2140,
                                      0.1874, 0.1623, 0.1386, 0.1138, 0.0931,
                                      0.0740, 0.0565, 0.0405, 0.0258, 0.0123,
                                      0.0000

interp_type                         = 2                                 ! (default) vertical interpolation that is linear in log(pressure)
extrap_type                         = 2                                 ! (default) vertical extrapolation of non-temperature variables, using the lowest level as constant below ground
t_extrap_type                       = 2                                 ! vertical extrapolation for potential temp: (default) -6.5 K/km lapse rate for temperature
lagrange_order                      = 2                                 ! (default) quadratic vertical interpolation order

lowest_lev_from_sfc                 = .false.                           ! (default) use traditional interpolation
force_sfc_in_vinterp                = 1                                 ! (default) use the surface level as the lower boundary when interpolating through this many eta levels
zap_close_levels                    = 500                               ! allow surface data to be used if it is close to a constant pressure level
sfcp_to_sfcp                        = .false.                           ! optional method to compute model's surface pressure when incoming data only has surface pressure and terrain, but not sealevel pressure (default is .false.)
adjust_heights                      = .false.                           !

lowest_lev_from_sfc                 = .false.                           ! (default) use traditional interpolation
use_levels_below_ground             = .true.                            ! in vertical interpolation, whether to use levels below input surface level; (default) use input isobaric levels below input surface
use_surface                         = .true.                            ! (default) uses input surface level

dx                                  = 12000,
dy                                  = 12000,

grid_id                             = 1,
parent_id                           = 0,
i_parent_start                      = 1,
j_parent_start                      = 1,
parent_grid_ratio                   = 1,
parent_time_step_ratio              = 1,

vert_refine_method                  = 0,
vert_refine_fact                    = 1,

feedback                            = 0,
smooth_option                       = 0,
smooth_cg_topo                      = .true.,                           ! smooth topography on the outer rows and columns in domain 1
num_traj                            = 0,
/

&physics 
mp_physics                          = 10,                                ! WRF Single-Moment 5-class scheme: A slightly more sophisticated version of (3) that allows for mixed-phase processes and super-cooled water
mp_zero_out                         = 0,                                ! for non-zero mp_physics options, this keeps moisture variables above a threshold value .0. An alternative (and better) way to keep moisture variables positive is to use the moist_adv_opt

ra_lw_physics                       = 4,                                ! RRTMG scheme
ra_sw_physics                       = 4,                                ! RRTMG scheme
radt                                = 12,
swint_opt                           = 1,                                ! Interpolation of shortwave radiation based on the updated solar zenith angle between radiation calls
aer_opt                             = 0,                                ! aerosol input option (RRTMG only); 1-using Tegen climatology; 2 - J. A. Ruiz-Arias method (see other aer* options)

slope_rad                           = 0,                                ! use slope-dependent radiation
topo_shading                        = 1,                                ! applies neighboring-point shadow effects for ra_sw_physics
shadlen                             = 25000.,                           ! maximum length of orographic shadow (in meters); use with topo_shading=1

surface_input_source                = 1,                                ! where landuse and soil category data come from 1 (default) WPS/geogrid, but with dominant categories recomputed in real
sf_surface_physics                  = 2,                                ! Land Surface; Noah Land Surface Model: Unified NCEP/NCAR/AFWA scheme with soil temperature and moisture in four layers, fractional snow cover and frozen soil physics
sf_urban_physics                    = 0,                                ! Urban canopy model (1): 3-category UCM option with surface effects for roofs, walls, and streets.
sf_lake_physics                     = 0,                                ! lake model on (default is 0 = off)

sf_surface_mosaic                   = 1,                                ! use mosaic landuse categories
mosaic_cat                          = 3,                                ! (default) number of mosaic landuse categories in a grid cell
mosaic_lu                           = 0,                                ! For RUC LSM only
mosaic_soil                         = 0,                                ! For RUC LSM only

sst_update                          = 1,                                ! option to use time-varying SST, seaice, vegetation fraction, and albedo during a model simulation (set before running real.exe)
num_soil_layers                     = 4,                                ! number of soil layers in land surface model (set before running real.exe)
num_land_cat                        = 21,                               ! In future use MODIS with lake category
usemonalb                           = .true.                            ! When set to .true., it uses monthly albedo fields from geogrid, instead of table values
rdlai2d                             = .true.                            ! When set to .true., it uses monthly LAI data from geogrid (new in V3.6) and the field will also go to wrflowinp file if sst_update is 1.

sf_sfclay_physics                   = 5,                                ! surface layer option
bl_pbl_physics                      = 5,                                ! boundary layer option, MYNN 2.5 level TKE
bl_mynn_tkeadvect                   = .false.,                          ! (default) off; does not advect tke in MYNN scheme (default)
bl_mynn_tkebudget                   = 0,                                ! 1- adds MYNN tke budget terms to output
bl_mynn_cloudpdf                    = 2,
bl_mynn_edmf                        = 1,
bl_mynn_edmf_mom                    = 1,
bl_mynn_edmf_tke                    = 0,
bl_mynn_mixlength                   = 2,
bl_mynn_mixqt                       = 0,

grav_settling                       = 2,                                ! Fogdes (vegetation and wind speed dependent; Katata et al. 2008) at surface, and Dyunkerke in the atmosphere
iz0tlnd                             = 1,                                ! Chen-Zhang thermal roughness length over land, which depends on vegetation height
bldt                                = 0,

cu_physics                          = 3,                                ! Grell-Freitas ensemble scheme
cudt                                = 0,
cu_rad_feedback                     = .true.,                           ! sub-grid cloud effect to the optical depth in radiation currently it works only for GF, G3, GD, and KF schemes; also need to set cu_diag = 1 for GF, G3, and GD schemes (default is .false. =off)
cu_diag                             = 1,                                ! Additional time-averaged diagnostics from cu_physics (use only with cu_physics=3,5,and 93)
ishallow                            = 0,                                ! shallow convection used with cu_physics=3 or 5 (default is 0 = off)
prec_acc_dt                         = 60.,                              ! bucket reset time interval between outputs for cumulus or grid-scale precipitation (in minutes)

shcu_physics                        = 0,                                ! independent shallow cumulus option (not tied to deep convection);
                                                                        ! 2- CAM UW shallow convection, 3- GRIMS scheme

isfflx                              = 1,                                ! heat and moisture fluxes from the surface for real-data cases and when a PBL is used (only works with sf_sfclay_physics=1, 5, 7, or 11) 1 = fluxes are on, 0 = fluxes are off
ifsnow                              = 1,                                ! snow-cover effects (only works for sf_surface_physics=1)
icloud                              = 1,                                ! (default) cloud effect to the optical depth in radiation (only works with ra_sw_physics=1,4 and ra_lw_physics=1,4). with cloud effect, and use cloud fraction option 1 (Xu-Randall mehod)
icloud_bl                           = 1,
traj_opt                            = 0,
dm_has_traj                         = .true.,
/

&dfi_control
dfi_opt                             = 0
/


&dynamics
hybrid_opt                          = 2,                                ! WRF V3.9 vert coord opt (0= no hybrid TF, 2= hybrid HYB)
km_opt                              = 4,                                ! horizontal Smagorinsky first order closure (recommended for realdata case)
km_opt_dfi                          = 1,
diff_opt                            = 2,                                ! 1 - (default) evaluates 2nd order diffusion term on coordinate surfaces, uses kvdif for vertical diffusion unless PBL option is used, may be used with km_opt = 1 (recommended for real-data case) and 4
                                                                        ! 2 - evaluates mixing tems in physical space (stress form) (x,y,z); turbulence parameterization is chosen by specifying km_opt

c_s                                 = 0.25,                             ! Smagorinsky coeff

mix_full_fields                     = .false.,                          ! used with diff_opt = 2; value of .true. is recommended, except for highly idealized numerical tests; damp_opt must not be =1 if .true. is chosen; .false. means subtract 1D base-state profile before mixing (only for idealized)

damp_opt                            = 3,                                ! with Rayleigh damping (dampcoef inverse time scale [1/s], e.g. 0.2; for real-data cases)
zdamp                               = 5000.,                            ! damping depth (m) from model top
dampcoef                            = 0.2,                              ! damping coefficient
w_damping                           = 1,                                ! vertical velocity damping flag (for operational use)

diff_6th_opt                        = 2,                                ! 6th-order numerical diffusion nondimensional rate (max value 1.0 corresponds to complete removal of 2dx wave in one timestep)
diff_6th_factor                     = 0.12,                             ! 0.12 is the default number
gwd_opt                             = 0,                                ! gravity wave drag option; use when grid size > 10 km (default is 0=off)

base_temp                           = 290.,                             ! base state temperature (K); real only
iso_temp                            = 200.,                             ! isothermal temperature in statosphere; enables model to be extended to 5 mb; real only. Default value changed to 200 since V3.5

khdif                               = 0,                                ! horizontal diffusion constant (m2/s)
kvdif                               = 0,                                ! vertical diffusion constant (m2/s)
smdiv                               = 0.1,                              ! divergence damping (0.1 is typical)
emdiv                               = 0.01,                             ! external-mode filter coef for mass coordinate model (0.01 is typical for real-data cases)
epssm                               = 0.1,                              ! time off-centering for vertical sound waves
time_step_sound                     = 4,                                ! number of sound steps per timestep (if using a time_step much larger than 6*DX (in km), increase number of sound steps (default is 0)

h_mom_adv_order                     = 5,                                ! horizontal momentum advection order
v_mom_adv_order                     = 3,                                ! vertical momentum advection order
h_sca_adv_order                     = 5,                                ! horizontal scalar advection order
v_sca_adv_order                     = 3,                                ! vertical scalar advection order
non_hydrostatic                     = .true.,

use_input_w                         = .false.,                          ! whether to use vertical velocity from input file

moist_adv_opt                       = 2,                                ! (default) positive-definite
momentum_adv_opt                    = 1,
scalar_adv_opt                      = 2,                                ! monotonic
tke_adv_opt                         = 2,
chem_adv_opt                        = 2,

do_avgflx_em                        = 1,
do_avgflx_cugd                      = 1,
/

&bdy_control
spec_bdy_width                      = 5,
spec_zone                           = 1,
relax_zone                          = 4,
specified                           = .true.,
nested                              = .false.,
spec_exp                            = 0.                                ! exponential multiplier for relaxation zone ramp for specified = .true.; default is 0. = linear ramp; 0.33 = ~3*DX exp decay factor (real only)
constant_bc                         = .false.,                           ! constant boundary condition used with DFI (default is .false.)
/

&grib2
/

&namelist_quilt
nio_tasks_per_group                 = 0,                                ! default value is 0: no quilting; > 0: the number of processors used for IO quilting per IO group
nio_groups                          = 1,
/

&chem
chem_opt                            = 108,      108,                    ! Chemistry option
gaschem_onoff                       = 1,        1,
aerchem_onoff                       = 1,        0,
do_pvozone                          = .false. 
phot_blcld                          = .true.
chemdt                              = 0,        0,
bioemdt                             = 30,       30,                     ! update time interval used by biogenic emissions in minutes

lnox_opt                            = 1,                                ! lightning NOx, Meng Li 
N_IC                                = 125.,
N_CG                                = 125.,


lightning_option                    = 11,                               ! add lightning NOx, Meng Li                  
iccg_prescribed_num                 = 2.,
iccg_prescribed_den                 = 1.,
lightning_dt                        = 72.,                             ! Or your meteorology time step
cellcount_method                    = 0,
lightning_start_seconds             = 600.,
cldtop_adjustment                   = 0.,                              ! set to 2, usefu for severe storms in Oklahoma, but may want to start from 0

iccg_method                         = 2,
flashrate_factor                    = 1.,

vertmix_onoff                       = 1,        1,
chem_conv_tr                        = 1,        0,
mynn_chem_vertmx                    = .true.,
enh_vermix                          = .false.,                           ! Additional mixing for chemicals, needed for nighttime
have_bcs_upper                      = .false.,

gas_drydep_opt                      = 1,        1,
aer_drydep_opt                      = 1,        0,
!depo_snow                           = .false.,

!add_ivocs                           = .false.,
!depo_fact                           = 0.1,      0,

emiss_inpt_opt                      = 1,        1,                     !
emiss_opt                           = 3,        3,                     ! 16- for CO2/CO simulations
kemit                               = 20,
io_style_emissions                  = 2,                                ! 1- two 12-h emissions data files used; 2- Date/time specific emissions data files used
aircraft_emiss_opt                  = 0,
bio_emiss_opt                       = 2,        0,                      ! 2- includes biogenic emissions reference fields in wrfinput data file and modify values online based upon the weather
ne_area                         = 117,
phot_opt                            = 4,        4,                      ! 1- uses Madronich photolysis (TUV)
photdt                              = 30,       30,
is_full_tuv                         = .true.,
has_o3_exo_coldens                  = .false.,      ! o3 column density above 50 km from WACCM climo
scale_o3_to_grnd_exo_coldens        = .false.,      ! total o3 column at ground NOT scaled to climatology
scale_o3_to_du_at_grnd              = .false.,       ! scaled to the du_at_grnd value at the ground
scale_o3_to_gfs_tot                 = .true.,
pht_cldfrc_opt                      = 2,            ! grid cell cloud fraction is between ("either or" for opt = 1) 0 and 1
cld_od_opt                          = 1,            ! cloud optical depth is scaled by cloud fraction (opt = 2, cld**1.5)
aer_ra_feedback                     = 1,
aer_op_opt                          = 1,
!phot_dobsi                          = 325.,
!phot_snow                           = .false.,

conv_tr_aqchem                      = 0,        1,                      ! CMAQ aqeuous chemistry for sub-grid clouds; Not used until it's verified
conv_tr_wetscav                     = 1,        1,
!conv_gas_wetscav                    = 1,                                ! RAR: wet removal of gas species by sub-grid precipitation
!conv_aer_wetscav                    = 0,                                ! RAR: wet removal of aerosol species by sub-grid precipitation
!aq_aer_ratio                        = 1.0,                              ! scavenging factor
cldchem_onoff                       = 0,        0,                      ! cloud chemistry turned off in the simulation, also see the <93>chem_opt<94> parameter
wetscav_onoff                       = -1,                                ! wet scavenging
!reso_gas_wetscav                    = 1,                                ! RAR: wet removal of gas species by resolved precipitation
!reso_aer_wetscav                    = 0,                                ! RAR: wet removal of aerosol species by resolved precipitation

seas_opt                            = 0,                                ! no GOCART sea salt emissions, 2- MOSAIC or MADE/SORGAM sea salt emissions
dust_opt                            = 0,                                ! no GOCART dust emissions included
dmsemis_opt                         = 0,                                ! no GOCART dms emissions from sea surface
biomass_burn_opt                    = 0,        0,                      ! no biomass burning emissions
!plumerisefire_frq                   = 30,       30,                     ! time interval for calling the biomass burning plume rise subroutine
!plumerise_flag                      = 0,
!bb_dcycle                           = .false.,

gas_bc_opt                          = 1,        1,                      ! uses default boundary profile
gas_ic_opt                          = 1,        1,                      ! uses default initial condition profile; 16 is for GHGs
aer_bc_opt                          = 1,        1,
aer_ic_opt                          = 1,        1,
opt_pars_out                        = 1,                                ! no optical properties output

diagnostic_chem                     = 2,        2,
!debug_chem                          = .false.,
!debug_soa                           = .false.,
!chemdiag                            = 113,
